[root]
type=Root
children=system
eventq_index=0
full_system=false
sim_quantum=0
time_sync_enable=false
time_sync_period=100000000000
time_sync_spin_threshold=100000000

[system]
type=System
children=caches clk_domain cpu0 cpu1 dvfs_handler mem_ctrl redirect_paths0 redirect_paths1 redirect_paths2 workload
cache_line_size=64
eventq_index=0
exit_on_work_items=false
init_param=0
m5ops_base=0
mem_mode=timing
mem_ranges=0:536870912
memories=system.mem_ctrl.dram
mmap_using_noreserve=false
multi_thread=false
num_work_ids=16
readfile=
redirect_paths=system.redirect_paths0 system.redirect_paths1 system.redirect_paths2
shadow_rom_ranges=
shared_backstore=
symbolfile=
thermal_components=
thermal_model=Null
work_begin_ckpt_count=0
work_begin_cpu_id_exit=-1
work_begin_exit_count=0
work_cpus_ckpt_count=0
work_end_ckpt_count=0
work_end_exit_count=0
work_item_id=-1
workload=system.workload
system_port=system.caches.sys_port_proxy.in_ports[0]

[system.caches]
type=RubySystem
children=controllers0 controllers1 controllers2 network power_state sequencers0 sequencers1 sys_port_proxy
access_backing_store=false
all_instructions=false
block_size_bytes=64
clk_domain=system.clk_domain
eventq_index=0
hot_lines=false
memory_size_bits=64
num_of_sequencers=2
number_of_virtual_networks=3
phys_mem=Null
power_model=
power_state=system.caches.power_state
randomization=false
system=system

[system.caches.controllers0]
type=L1Cache_Controller
children=cacheMemory forwardFromDir mandatoryQueue power_state requestToDir responseFromDirOrSibling responseToDirOrSibling
addr_ranges=0:18446744073709551615
buffer_size=0
cacheMemory=system.caches.controllers0.cacheMemory
clk_domain=system.clk_domain
cluster_id=0
downstream_destinations=
eventq_index=0
forwardFromDir=system.caches.controllers0.forwardFromDir
mandatoryQueue=system.caches.controllers0.mandatoryQueue
mandatory_queue_latency=1
number_of_TBEs=256
power_model=
power_state=system.caches.controllers0.power_state
recycle_latency=10
requestToDir=system.caches.controllers0.requestToDir
responseFromDirOrSibling=system.caches.controllers0.responseFromDirOrSibling
responseToDirOrSibling=system.caches.controllers0.responseToDirOrSibling
ruby_system=system.caches
send_evictions=true
sequencer=system.caches.sequencers0
system=system
transitions_per_cycle=32
version=0

[system.caches.controllers0.cacheMemory]
type=RubyCache
children=replacement_policy
assoc=8
block_size=0
dataAccessLatency=1
dataArrayBanks=1
eventq_index=0
is_icache=false
replacement_policy=system.caches.controllers0.cacheMemory.replacement_policy
resourceStalls=false
ruby_system=system.caches
size=16384
start_index_bit=6
tagAccessLatency=1
tagArrayBanks=1

[system.caches.controllers0.cacheMemory.replacement_policy]
type=TreePLRURP
eventq_index=0
num_leaves=8

[system.caches.controllers0.forwardFromDir]
type=MessageBuffer
allow_zero_latency=false
buffer_size=0
eventq_index=0
ordered=true
randomization=ruby_system
in_port=system.caches.network.out_port[0]

[system.caches.controllers0.mandatoryQueue]
type=MessageBuffer
allow_zero_latency=false
buffer_size=0
eventq_index=0
ordered=false
randomization=ruby_system

[system.caches.controllers0.power_state]
type=PowerState
clk_gate_bins=20
clk_gate_max=1000000000000
clk_gate_min=1000
default_state=UNDEFINED
eventq_index=0
leaders=
possible_states=

[system.caches.controllers0.requestToDir]
type=MessageBuffer
allow_zero_latency=false
buffer_size=0
eventq_index=0
ordered=true
randomization=ruby_system
out_port=system.caches.network.in_port[0]

[system.caches.controllers0.responseFromDirOrSibling]
type=MessageBuffer
allow_zero_latency=false
buffer_size=0
eventq_index=0
ordered=true
randomization=ruby_system
in_port=system.caches.network.out_port[1]

[system.caches.controllers0.responseToDirOrSibling]
type=MessageBuffer
allow_zero_latency=false
buffer_size=0
eventq_index=0
ordered=true
randomization=ruby_system
out_port=system.caches.network.in_port[1]

[system.caches.controllers1]
type=L1Cache_Controller
children=cacheMemory forwardFromDir mandatoryQueue power_state requestToDir responseFromDirOrSibling responseToDirOrSibling
addr_ranges=0:18446744073709551615
buffer_size=0
cacheMemory=system.caches.controllers1.cacheMemory
clk_domain=system.clk_domain
cluster_id=0
downstream_destinations=
eventq_index=0
forwardFromDir=system.caches.controllers1.forwardFromDir
mandatoryQueue=system.caches.controllers1.mandatoryQueue
mandatory_queue_latency=1
number_of_TBEs=256
power_model=
power_state=system.caches.controllers1.power_state
recycle_latency=10
requestToDir=system.caches.controllers1.requestToDir
responseFromDirOrSibling=system.caches.controllers1.responseFromDirOrSibling
responseToDirOrSibling=system.caches.controllers1.responseToDirOrSibling
ruby_system=system.caches
send_evictions=true
sequencer=system.caches.sequencers1
system=system
transitions_per_cycle=32
version=1

[system.caches.controllers1.cacheMemory]
type=RubyCache
children=replacement_policy
assoc=8
block_size=0
dataAccessLatency=1
dataArrayBanks=1
eventq_index=0
is_icache=false
replacement_policy=system.caches.controllers1.cacheMemory.replacement_policy
resourceStalls=false
ruby_system=system.caches
size=16384
start_index_bit=6
tagAccessLatency=1
tagArrayBanks=1

[system.caches.controllers1.cacheMemory.replacement_policy]
type=TreePLRURP
eventq_index=0
num_leaves=8

[system.caches.controllers1.forwardFromDir]
type=MessageBuffer
allow_zero_latency=false
buffer_size=0
eventq_index=0
ordered=true
randomization=ruby_system
in_port=system.caches.network.out_port[2]

[system.caches.controllers1.mandatoryQueue]
type=MessageBuffer
allow_zero_latency=false
buffer_size=0
eventq_index=0
ordered=false
randomization=ruby_system

[system.caches.controllers1.power_state]
type=PowerState
clk_gate_bins=20
clk_gate_max=1000000000000
clk_gate_min=1000
default_state=UNDEFINED
eventq_index=0
leaders=
possible_states=

[system.caches.controllers1.requestToDir]
type=MessageBuffer
allow_zero_latency=false
buffer_size=0
eventq_index=0
ordered=true
randomization=ruby_system
out_port=system.caches.network.in_port[2]

[system.caches.controllers1.responseFromDirOrSibling]
type=MessageBuffer
allow_zero_latency=false
buffer_size=0
eventq_index=0
ordered=true
randomization=ruby_system
in_port=system.caches.network.out_port[3]

[system.caches.controllers1.responseToDirOrSibling]
type=MessageBuffer
allow_zero_latency=false
buffer_size=0
eventq_index=0
ordered=true
randomization=ruby_system
out_port=system.caches.network.in_port[3]

[system.caches.controllers2]
type=Directory_Controller
children=directory forwardToCache power_state requestFromCache requestToMemory responseFromCache responseFromMemory responseToCache
addr_ranges=0:536870912
buffer_size=0
clk_domain=system.clk_domain
cluster_id=0
directory=system.caches.controllers2.directory
downstream_destinations=
eventq_index=0
forwardToCache=system.caches.controllers2.forwardToCache
mandatory_queue_latency=1
number_of_TBEs=256
power_model=
power_state=system.caches.controllers2.power_state
recycle_latency=10
requestFromCache=system.caches.controllers2.requestFromCache
requestToMemory=system.caches.controllers2.requestToMemory
responseFromCache=system.caches.controllers2.responseFromCache
responseFromMemory=system.caches.controllers2.responseFromMemory
responseToCache=system.caches.controllers2.responseToCache
ruby_system=system.caches
system=system
toMemLatency=1
transitions_per_cycle=32
version=0
memory_out_port=system.mem_ctrl.port

[system.caches.controllers2.directory]
type=RubyDirectoryMemory
addr_ranges=0:536870912
eventq_index=0

[system.caches.controllers2.forwardToCache]
type=MessageBuffer
allow_zero_latency=false
buffer_size=0
eventq_index=0
ordered=true
randomization=ruby_system
out_port=system.caches.network.in_port[5]

[system.caches.controllers2.power_state]
type=PowerState
clk_gate_bins=20
clk_gate_max=1000000000000
clk_gate_min=1000
default_state=UNDEFINED
eventq_index=0
leaders=
possible_states=

[system.caches.controllers2.requestFromCache]
type=MessageBuffer
allow_zero_latency=false
buffer_size=0
eventq_index=0
ordered=true
randomization=ruby_system
in_port=system.caches.network.out_port[4]

[system.caches.controllers2.requestToMemory]
type=MessageBuffer
allow_zero_latency=false
buffer_size=0
eventq_index=0
ordered=false
randomization=ruby_system

[system.caches.controllers2.responseFromCache]
type=MessageBuffer
allow_zero_latency=false
buffer_size=0
eventq_index=0
ordered=true
randomization=ruby_system
in_port=system.caches.network.out_port[5]

[system.caches.controllers2.responseFromMemory]
type=MessageBuffer
allow_zero_latency=false
buffer_size=0
eventq_index=0
ordered=false
randomization=ruby_system

[system.caches.controllers2.responseToCache]
type=MessageBuffer
allow_zero_latency=false
buffer_size=0
eventq_index=0
ordered=true
randomization=ruby_system
out_port=system.caches.network.in_port[4]

[system.caches.network]
type=SimpleNetwork
children=ext_links0 ext_links1 ext_links2 int_link_buffers00 int_link_buffers01 int_link_buffers02 int_link_buffers03 int_link_buffers04 int_link_buffers05 int_link_buffers06 int_link_buffers07 int_link_buffers08 int_link_buffers09 int_link_buffers10 int_link_buffers11 int_link_buffers12 int_link_buffers13 int_link_buffers14 int_link_buffers15 int_link_buffers16 int_link_buffers17 int_link_buffers18 int_link_buffers19 int_link_buffers20 int_link_buffers21 int_link_buffers22 int_link_buffers23 int_link_buffers24 int_link_buffers25 int_link_buffers26 int_link_buffers27 int_link_buffers28 int_link_buffers29 int_link_buffers30 int_link_buffers31 int_link_buffers32 int_link_buffers33 int_link_buffers34 int_link_buffers35 int_links0 int_links1 int_links2 int_links3 int_links4 int_links5 power_state routers0 routers1 routers2
adaptive_routing=false
buffer_size=0
clk_domain=system.clk_domain
control_msg_size=8
data_msg_size=64
endpoint_bandwidth=1000
eventq_index=0
ext_links=system.caches.network.ext_links0 system.caches.network.ext_links1 system.caches.network.ext_links2
int_link_buffers=system.caches.network.int_link_buffers00 system.caches.network.int_link_buffers01 system.caches.network.int_link_buffers02 system.caches.network.int_link_buffers03 system.caches.network.int_link_buffers04 system.caches.network.int_link_buffers05 system.caches.network.int_link_buffers06 system.caches.network.int_link_buffers07 system.caches.network.int_link_buffers08 system.caches.network.int_link_buffers09 system.caches.network.int_link_buffers10 system.caches.network.int_link_buffers11 system.caches.network.int_link_buffers12 system.caches.network.int_link_buffers13 system.caches.network.int_link_buffers14 system.caches.network.int_link_buffers15 system.caches.network.int_link_buffers16 system.caches.network.int_link_buffers17 system.caches.network.int_link_buffers18 system.caches.network.int_link_buffers19 system.caches.network.int_link_buffers20 system.caches.network.int_link_buffers21 system.caches.network.int_link_buffers22 system.caches.network.int_link_buffers23 system.caches.network.int_link_buffers24 system.caches.network.int_link_buffers25 system.caches.network.int_link_buffers26 system.caches.network.int_link_buffers27 system.caches.network.int_link_buffers28 system.caches.network.int_link_buffers29 system.caches.network.int_link_buffers30 system.caches.network.int_link_buffers31 system.caches.network.int_link_buffers32 system.caches.network.int_link_buffers33 system.caches.network.int_link_buffers34 system.caches.network.int_link_buffers35
int_links=system.caches.network.int_links0 system.caches.network.int_links1 system.caches.network.int_links2 system.caches.network.int_links3 system.caches.network.int_links4 system.caches.network.int_links5
netifs=
number_of_virtual_networks=3
power_model=
power_state=system.caches.network.power_state
routers=system.caches.network.routers0 system.caches.network.routers1 system.caches.network.routers2
ruby_system=system.caches
topology=Not Specified
in_port=system.caches.controllers0.requestToDir.out_port system.caches.controllers0.responseToDirOrSibling.out_port system.caches.controllers1.requestToDir.out_port system.caches.controllers1.responseToDirOrSibling.out_port system.caches.controllers2.responseToCache.out_port system.caches.controllers2.forwardToCache.out_port
out_port=system.caches.controllers0.forwardFromDir.in_port system.caches.controllers0.responseFromDirOrSibling.in_port system.caches.controllers1.forwardFromDir.in_port system.caches.controllers1.responseFromDirOrSibling.in_port system.caches.controllers2.requestFromCache.in_port system.caches.controllers2.responseFromCache.in_port

[system.caches.network.ext_links0]
type=SimpleExtLink
bandwidth_factor=16
eventq_index=0
ext_node=system.caches.controllers0
int_node=system.caches.network.routers0
latency=1
link_id=0
supported_vnets=
weight=1

[system.caches.network.ext_links1]
type=SimpleExtLink
bandwidth_factor=16
eventq_index=0
ext_node=system.caches.controllers1
int_node=system.caches.network.routers1
latency=1
link_id=1
supported_vnets=
weight=1

[system.caches.network.ext_links2]
type=SimpleExtLink
bandwidth_factor=16
eventq_index=0
ext_node=system.caches.controllers2
int_node=system.caches.network.routers2
latency=1
link_id=2
supported_vnets=
weight=1

[system.caches.network.int_link_buffers00]
type=MessageBuffer
allow_zero_latency=false
buffer_size=0
eventq_index=0
ordered=true
randomization=ruby_system

[system.caches.network.int_link_buffers01]
type=MessageBuffer
allow_zero_latency=false
buffer_size=0
eventq_index=0
ordered=true
randomization=ruby_system

[system.caches.network.int_link_buffers02]
type=MessageBuffer
allow_zero_latency=false
buffer_size=0
eventq_index=0
ordered=true
randomization=ruby_system

[system.caches.network.int_link_buffers03]
type=MessageBuffer
allow_zero_latency=false
buffer_size=0
eventq_index=0
ordered=true
randomization=ruby_system

[system.caches.network.int_link_buffers04]
type=MessageBuffer
allow_zero_latency=false
buffer_size=0
eventq_index=0
ordered=true
randomization=ruby_system

[system.caches.network.int_link_buffers05]
type=MessageBuffer
allow_zero_latency=false
buffer_size=0
eventq_index=0
ordered=true
randomization=ruby_system

[system.caches.network.int_link_buffers06]
type=MessageBuffer
allow_zero_latency=false
buffer_size=0
eventq_index=0
ordered=true
randomization=ruby_system

[system.caches.network.int_link_buffers07]
type=MessageBuffer
allow_zero_latency=false
buffer_size=0
eventq_index=0
ordered=true
randomization=ruby_system

[system.caches.network.int_link_buffers08]
type=MessageBuffer
allow_zero_latency=false
buffer_size=0
eventq_index=0
ordered=true
randomization=ruby_system

[system.caches.network.int_link_buffers09]
type=MessageBuffer
allow_zero_latency=false
buffer_size=0
eventq_index=0
ordered=true
randomization=ruby_system

[system.caches.network.int_link_buffers10]
type=MessageBuffer
allow_zero_latency=false
buffer_size=0
eventq_index=0
ordered=true
randomization=ruby_system

[system.caches.network.int_link_buffers11]
type=MessageBuffer
allow_zero_latency=false
buffer_size=0
eventq_index=0
ordered=true
randomization=ruby_system

[system.caches.network.int_link_buffers12]
type=MessageBuffer
allow_zero_latency=false
buffer_size=0
eventq_index=0
ordered=true
randomization=ruby_system

[system.caches.network.int_link_buffers13]
type=MessageBuffer
allow_zero_latency=false
buffer_size=0
eventq_index=0
ordered=true
randomization=ruby_system

[system.caches.network.int_link_buffers14]
type=MessageBuffer
allow_zero_latency=false
buffer_size=0
eventq_index=0
ordered=true
randomization=ruby_system

[system.caches.network.int_link_buffers15]
type=MessageBuffer
allow_zero_latency=false
buffer_size=0
eventq_index=0
ordered=true
randomization=ruby_system

[system.caches.network.int_link_buffers16]
type=MessageBuffer
allow_zero_latency=false
buffer_size=0
eventq_index=0
ordered=true
randomization=ruby_system

[system.caches.network.int_link_buffers17]
type=MessageBuffer
allow_zero_latency=false
buffer_size=0
eventq_index=0
ordered=true
randomization=ruby_system

[system.caches.network.int_link_buffers18]
type=MessageBuffer
allow_zero_latency=false
buffer_size=0
eventq_index=0
ordered=true
randomization=ruby_system

[system.caches.network.int_link_buffers19]
type=MessageBuffer
allow_zero_latency=false
buffer_size=0
eventq_index=0
ordered=true
randomization=ruby_system

[system.caches.network.int_link_buffers20]
type=MessageBuffer
allow_zero_latency=false
buffer_size=0
eventq_index=0
ordered=true
randomization=ruby_system

[system.caches.network.int_link_buffers21]
type=MessageBuffer
allow_zero_latency=false
buffer_size=0
eventq_index=0
ordered=true
randomization=ruby_system

[system.caches.network.int_link_buffers22]
type=MessageBuffer
allow_zero_latency=false
buffer_size=0
eventq_index=0
ordered=true
randomization=ruby_system

[system.caches.network.int_link_buffers23]
type=MessageBuffer
allow_zero_latency=false
buffer_size=0
eventq_index=0
ordered=true
randomization=ruby_system

[system.caches.network.int_link_buffers24]
type=MessageBuffer
allow_zero_latency=false
buffer_size=0
eventq_index=0
ordered=true
randomization=ruby_system

[system.caches.network.int_link_buffers25]
type=MessageBuffer
allow_zero_latency=false
buffer_size=0
eventq_index=0
ordered=true
randomization=ruby_system

[system.caches.network.int_link_buffers26]
type=MessageBuffer
allow_zero_latency=false
buffer_size=0
eventq_index=0
ordered=true
randomization=ruby_system

[system.caches.network.int_link_buffers27]
type=MessageBuffer
allow_zero_latency=false
buffer_size=0
eventq_index=0
ordered=true
randomization=ruby_system

[system.caches.network.int_link_buffers28]
type=MessageBuffer
allow_zero_latency=false
buffer_size=0
eventq_index=0
ordered=true
randomization=ruby_system

[system.caches.network.int_link_buffers29]
type=MessageBuffer
allow_zero_latency=false
buffer_size=0
eventq_index=0
ordered=true
randomization=ruby_system

[system.caches.network.int_link_buffers30]
type=MessageBuffer
allow_zero_latency=false
buffer_size=0
eventq_index=0
ordered=true
randomization=ruby_system

[system.caches.network.int_link_buffers31]
type=MessageBuffer
allow_zero_latency=false
buffer_size=0
eventq_index=0
ordered=true
randomization=ruby_system

[system.caches.network.int_link_buffers32]
type=MessageBuffer
allow_zero_latency=false
buffer_size=0
eventq_index=0
ordered=true
randomization=ruby_system

[system.caches.network.int_link_buffers33]
type=MessageBuffer
allow_zero_latency=false
buffer_size=0
eventq_index=0
ordered=true
randomization=ruby_system

[system.caches.network.int_link_buffers34]
type=MessageBuffer
allow_zero_latency=false
buffer_size=0
eventq_index=0
ordered=true
randomization=ruby_system

[system.caches.network.int_link_buffers35]
type=MessageBuffer
allow_zero_latency=false
buffer_size=0
eventq_index=0
ordered=true
randomization=ruby_system

[system.caches.network.int_links0]
type=SimpleIntLink
bandwidth_factor=16
dst_inport=
dst_node=system.caches.network.routers1
eventq_index=0
latency=1
link_id=1
src_node=system.caches.network.routers0
src_outport=
supported_vnets=
weight=1

[system.caches.network.int_links1]
type=SimpleIntLink
bandwidth_factor=16
dst_inport=
dst_node=system.caches.network.routers2
eventq_index=0
latency=1
link_id=2
src_node=system.caches.network.routers0
src_outport=
supported_vnets=
weight=1

[system.caches.network.int_links2]
type=SimpleIntLink
bandwidth_factor=16
dst_inport=
dst_node=system.caches.network.routers0
eventq_index=0
latency=1
link_id=3
src_node=system.caches.network.routers1
src_outport=
supported_vnets=
weight=1

[system.caches.network.int_links3]
type=SimpleIntLink
bandwidth_factor=16
dst_inport=
dst_node=system.caches.network.routers2
eventq_index=0
latency=1
link_id=4
src_node=system.caches.network.routers1
src_outport=
supported_vnets=
weight=1

[system.caches.network.int_links4]
type=SimpleIntLink
bandwidth_factor=16
dst_inport=
dst_node=system.caches.network.routers0
eventq_index=0
latency=1
link_id=5
src_node=system.caches.network.routers2
src_outport=
supported_vnets=
weight=1

[system.caches.network.int_links5]
type=SimpleIntLink
bandwidth_factor=16
dst_inport=
dst_node=system.caches.network.routers1
eventq_index=0
latency=1
link_id=6
src_node=system.caches.network.routers2
src_outport=
supported_vnets=
weight=1

[system.caches.network.power_state]
type=PowerState
clk_gate_bins=20
clk_gate_max=1000000000000
clk_gate_min=1000
default_state=UNDEFINED
eventq_index=0
leaders=
possible_states=

[system.caches.network.routers0]
type=Switch
children=port_buffers00 port_buffers01 port_buffers02 port_buffers03 port_buffers04 port_buffers05 port_buffers06 port_buffers07 port_buffers08 port_buffers09 port_buffers10 port_buffers11 port_buffers12 port_buffers13 port_buffers14 power_state
clk_domain=system.clk_domain
eventq_index=0
latency=1
port_buffers=system.caches.network.routers0.port_buffers00 system.caches.network.routers0.port_buffers01 system.caches.network.routers0.port_buffers02 system.caches.network.routers0.port_buffers03 system.caches.network.routers0.port_buffers04 system.caches.network.routers0.port_buffers05 system.caches.network.routers0.port_buffers06 system.caches.network.routers0.port_buffers07 system.caches.network.routers0.port_buffers08 system.caches.network.routers0.port_buffers09 system.caches.network.routers0.port_buffers10 system.caches.network.routers0.port_buffers11 system.caches.network.routers0.port_buffers12 system.caches.network.routers0.port_buffers13 system.caches.network.routers0.port_buffers14
power_model=
power_state=system.caches.network.routers0.power_state
router_id=0
virt_nets=3

[system.caches.network.routers0.port_buffers00]
type=MessageBuffer
allow_zero_latency=false
buffer_size=0
eventq_index=0
ordered=true
randomization=ruby_system

[system.caches.network.routers0.port_buffers01]
type=MessageBuffer
allow_zero_latency=false
buffer_size=0
eventq_index=0
ordered=true
randomization=ruby_system

[system.caches.network.routers0.port_buffers02]
type=MessageBuffer
allow_zero_latency=false
buffer_size=0
eventq_index=0
ordered=true
randomization=ruby_system

[system.caches.network.routers0.port_buffers03]
type=MessageBuffer
allow_zero_latency=false
buffer_size=0
eventq_index=0
ordered=true
randomization=ruby_system

[system.caches.network.routers0.port_buffers04]
type=MessageBuffer
allow_zero_latency=false
buffer_size=0
eventq_index=0
ordered=true
randomization=ruby_system

[system.caches.network.routers0.port_buffers05]
type=MessageBuffer
allow_zero_latency=false
buffer_size=0
eventq_index=0
ordered=true
randomization=ruby_system

[system.caches.network.routers0.port_buffers06]
type=MessageBuffer
allow_zero_latency=false
buffer_size=0
eventq_index=0
ordered=true
randomization=ruby_system

[system.caches.network.routers0.port_buffers07]
type=MessageBuffer
allow_zero_latency=false
buffer_size=0
eventq_index=0
ordered=true
randomization=ruby_system

[system.caches.network.routers0.port_buffers08]
type=MessageBuffer
allow_zero_latency=false
buffer_size=0
eventq_index=0
ordered=true
randomization=ruby_system

[system.caches.network.routers0.port_buffers09]
type=MessageBuffer
allow_zero_latency=false
buffer_size=0
eventq_index=0
ordered=true
randomization=ruby_system

[system.caches.network.routers0.port_buffers10]
type=MessageBuffer
allow_zero_latency=false
buffer_size=0
eventq_index=0
ordered=true
randomization=ruby_system

[system.caches.network.routers0.port_buffers11]
type=MessageBuffer
allow_zero_latency=false
buffer_size=0
eventq_index=0
ordered=true
randomization=ruby_system

[system.caches.network.routers0.port_buffers12]
type=MessageBuffer
allow_zero_latency=false
buffer_size=0
eventq_index=0
ordered=true
randomization=ruby_system

[system.caches.network.routers0.port_buffers13]
type=MessageBuffer
allow_zero_latency=false
buffer_size=0
eventq_index=0
ordered=true
randomization=ruby_system

[system.caches.network.routers0.port_buffers14]
type=MessageBuffer
allow_zero_latency=false
buffer_size=0
eventq_index=0
ordered=true
randomization=ruby_system

[system.caches.network.routers0.power_state]
type=PowerState
clk_gate_bins=20
clk_gate_max=1000000000000
clk_gate_min=1000
default_state=UNDEFINED
eventq_index=0
leaders=
possible_states=

[system.caches.network.routers1]
type=Switch
children=port_buffers00 port_buffers01 port_buffers02 port_buffers03 port_buffers04 port_buffers05 port_buffers06 port_buffers07 port_buffers08 port_buffers09 port_buffers10 port_buffers11 port_buffers12 port_buffers13 port_buffers14 power_state
clk_domain=system.clk_domain
eventq_index=0
latency=1
port_buffers=system.caches.network.routers1.port_buffers00 system.caches.network.routers1.port_buffers01 system.caches.network.routers1.port_buffers02 system.caches.network.routers1.port_buffers03 system.caches.network.routers1.port_buffers04 system.caches.network.routers1.port_buffers05 system.caches.network.routers1.port_buffers06 system.caches.network.routers1.port_buffers07 system.caches.network.routers1.port_buffers08 system.caches.network.routers1.port_buffers09 system.caches.network.routers1.port_buffers10 system.caches.network.routers1.port_buffers11 system.caches.network.routers1.port_buffers12 system.caches.network.routers1.port_buffers13 system.caches.network.routers1.port_buffers14
power_model=
power_state=system.caches.network.routers1.power_state
router_id=1
virt_nets=3

[system.caches.network.routers1.port_buffers00]
type=MessageBuffer
allow_zero_latency=false
buffer_size=0
eventq_index=0
ordered=true
randomization=ruby_system

[system.caches.network.routers1.port_buffers01]
type=MessageBuffer
allow_zero_latency=false
buffer_size=0
eventq_index=0
ordered=true
randomization=ruby_system

[system.caches.network.routers1.port_buffers02]
type=MessageBuffer
allow_zero_latency=false
buffer_size=0
eventq_index=0
ordered=true
randomization=ruby_system

[system.caches.network.routers1.port_buffers03]
type=MessageBuffer
allow_zero_latency=false
buffer_size=0
eventq_index=0
ordered=true
randomization=ruby_system

[system.caches.network.routers1.port_buffers04]
type=MessageBuffer
allow_zero_latency=false
buffer_size=0
eventq_index=0
ordered=true
randomization=ruby_system

[system.caches.network.routers1.port_buffers05]
type=MessageBuffer
allow_zero_latency=false
buffer_size=0
eventq_index=0
ordered=true
randomization=ruby_system

[system.caches.network.routers1.port_buffers06]
type=MessageBuffer
allow_zero_latency=false
buffer_size=0
eventq_index=0
ordered=true
randomization=ruby_system

[system.caches.network.routers1.port_buffers07]
type=MessageBuffer
allow_zero_latency=false
buffer_size=0
eventq_index=0
ordered=true
randomization=ruby_system

[system.caches.network.routers1.port_buffers08]
type=MessageBuffer
allow_zero_latency=false
buffer_size=0
eventq_index=0
ordered=true
randomization=ruby_system

[system.caches.network.routers1.port_buffers09]
type=MessageBuffer
allow_zero_latency=false
buffer_size=0
eventq_index=0
ordered=true
randomization=ruby_system

[system.caches.network.routers1.port_buffers10]
type=MessageBuffer
allow_zero_latency=false
buffer_size=0
eventq_index=0
ordered=true
randomization=ruby_system

[system.caches.network.routers1.port_buffers11]
type=MessageBuffer
allow_zero_latency=false
buffer_size=0
eventq_index=0
ordered=true
randomization=ruby_system

[system.caches.network.routers1.port_buffers12]
type=MessageBuffer
allow_zero_latency=false
buffer_size=0
eventq_index=0
ordered=true
randomization=ruby_system

[system.caches.network.routers1.port_buffers13]
type=MessageBuffer
allow_zero_latency=false
buffer_size=0
eventq_index=0
ordered=true
randomization=ruby_system

[system.caches.network.routers1.port_buffers14]
type=MessageBuffer
allow_zero_latency=false
buffer_size=0
eventq_index=0
ordered=true
randomization=ruby_system

[system.caches.network.routers1.power_state]
type=PowerState
clk_gate_bins=20
clk_gate_max=1000000000000
clk_gate_min=1000
default_state=UNDEFINED
eventq_index=0
leaders=
possible_states=

[system.caches.network.routers2]
type=Switch
children=port_buffers00 port_buffers01 port_buffers02 port_buffers03 port_buffers04 port_buffers05 port_buffers06 port_buffers07 port_buffers08 port_buffers09 port_buffers10 port_buffers11 port_buffers12 port_buffers13 port_buffers14 power_state
clk_domain=system.clk_domain
eventq_index=0
latency=1
port_buffers=system.caches.network.routers2.port_buffers00 system.caches.network.routers2.port_buffers01 system.caches.network.routers2.port_buffers02 system.caches.network.routers2.port_buffers03 system.caches.network.routers2.port_buffers04 system.caches.network.routers2.port_buffers05 system.caches.network.routers2.port_buffers06 system.caches.network.routers2.port_buffers07 system.caches.network.routers2.port_buffers08 system.caches.network.routers2.port_buffers09 system.caches.network.routers2.port_buffers10 system.caches.network.routers2.port_buffers11 system.caches.network.routers2.port_buffers12 system.caches.network.routers2.port_buffers13 system.caches.network.routers2.port_buffers14
power_model=
power_state=system.caches.network.routers2.power_state
router_id=2
virt_nets=3

[system.caches.network.routers2.port_buffers00]
type=MessageBuffer
allow_zero_latency=false
buffer_size=0
eventq_index=0
ordered=true
randomization=ruby_system

[system.caches.network.routers2.port_buffers01]
type=MessageBuffer
allow_zero_latency=false
buffer_size=0
eventq_index=0
ordered=true
randomization=ruby_system

[system.caches.network.routers2.port_buffers02]
type=MessageBuffer
allow_zero_latency=false
buffer_size=0
eventq_index=0
ordered=true
randomization=ruby_system

[system.caches.network.routers2.port_buffers03]
type=MessageBuffer
allow_zero_latency=false
buffer_size=0
eventq_index=0
ordered=true
randomization=ruby_system

[system.caches.network.routers2.port_buffers04]
type=MessageBuffer
allow_zero_latency=false
buffer_size=0
eventq_index=0
ordered=true
randomization=ruby_system

[system.caches.network.routers2.port_buffers05]
type=MessageBuffer